/*--------------------------------*- C++ -*----------------------------------*\
  =========                 |
  \\      /  F ield         | OpenFOAM: The Open Source CFD Toolbox
   \\    /   O peration     | Website:  https://openfoam.org
    \\  /    A nd           | Version:  7
     \\/     M anipulation  |
\*---------------------------------------------------------------------------*/
FoamFile
{
    version     2.0;
    format      ascii;
    class       dictionary;
    location    "system";
    object      fvSolution;
}
// * * * * * * * * * * * * * * * * * * * * * * * * * * * * * * * * * * * * * //

solvers
{
    p
    {
        solver          GAMG;
        smoother        DIC;
        tolerance       1e-6;
        relTol          0.1;
    }

    pFinal
    {
        $p;
        relTol          0;
    }
    p_rgh
    {
        solver          GAMG; // changed from PCG
	smoother	DIC; // changed to a smoother instead of a preconditioner for the GAMG solver
        tolerance	1e-06;
        relTol   	0.05; // changed from 0.05
    }

    p_rghFinal
    {
        $p_rgh;
        relTol          0;
    }

    "(U|k|epsilon).*"
    {
		// nLimiterIter    		1;
        solver          smoothSolver;
        smoother        symGaussSeidel;
        tolerance       1e-08;
        relTol          0.1; // changed from 0
        minIter         1; // newly added
    }

}

PISO
{
    nCorrectors         2;
    nNonOrthogonalCorrectors 0;
}


// ************************************************************************* //
