/*--------------------------------*- C++ -*----------------------------------*\
  =========                 |
  \\      /  F ield         | OpenFOAM: The Open Source CFD Toolbox
   \\    /   O peration     | Website:  https://openfoam.org
    \\  /    A nd           | Version:  7
     \\/     M anipulation  |
\*---------------------------------------------------------------------------*/
FoamFile
{
    version     2.0;
    format      ascii;
    class       dictionary;
    object      blockMeshDict;
}
// * * * * * * * * * * * * * * * * * * * * * * * * * * * * * * * * * * * * * //

convertToMeters 1;
vertices
(
    (0 0 -0.25)
    (60 0 -0.25)
    (60 40 -0.25)
    (0 40 -0.25)
    (0 0 0.25)
    (60 0 0.25)
    (60 40 0.25)
    (0 40 0.25)
);

blocks
(
    hex (0 1 2 3 4 5 6 7) (480 480 1) 

      simpleGrading
        (   ((0.25 0.25 0.1)(0.375 0.375 1)(0.375 0.375 10))
            ((0.4 0.4 0.2)(0.2 0.2 1)(0.4 0.4 5))
	    1
	)
);

boundary
(
    left
    {
        type patch;
        faces
        (
            (0 4 7 3)
        );
    }
    right
    {
        type patch;
        faces
        (
            (2 6 5 1)
        );
    }
    up
    {
        type patch;
        faces
        (
            (3 7 6 2)
        );
    }

    down
    {
        type patch;
        faces
        (

            (1 5 4 0)
        );
    }
    top
    {
        type empty;
        faces
        (
            (0 3 2 1)
        );
    }
    bottom
    {
        type empty;
        faces
        (
            (4 5 6 7)
        );
    }
);
// ************************************************************************* //
