/*---------------------------------------------------------------------------*\
|       OpenFoam mesh file generated using HyperMesh Version: 2019.1.0.20     |
\*---------------------------------------------------------------------------*/
FoamFile
{
    version     2.0;
    format      ascii;
    class       polyBoundaryMesh;
    location    "constant/polyMesh";
    object      boundary;
}
// * * * * * * * * * * * * * * * * * * * * * * * * * * * * * * * * * * * * * //

7
(
    left
    {
        type            patch;
        nFaces          320;
        startFace       305856;
    }
    right
    {
        type            patch;
        nFaces          320;
        startFace       306176;
    }
    down
    {
        type            empty;
        nFaces          153344;
        startFace       306496;
    }
    up
    {
        type            empty;
        nFaces          153344;
        startFace       459840;
    }
    top
    {
        type            patch;
        nFaces          480;
        startFace       613184;
    }
    bottom
    {
        type            patch;
        nFaces          480;
        startFace       613664;
    }
    cylinders
    {
        type            wall;
        nFaces          64;
        startFace       614144;
    }
)

// ************************************************************************* //
