/*---------------------------------------------------------------------------*\
|       OpenFoam mesh file generated using HyperMesh Version: 2019.1.0.20     |
\*---------------------------------------------------------------------------*/
FoamFile
{
    version     2.0;
    format      ascii;
    class       polyBoundaryMesh;
    location    "constant/polyMesh";
    object      boundary;
}
// * * * * * * * * * * * * * * * * * * * * * * * * * * * * * * * * * * * * * //

7
(
    left
    {
        type            patch;
        nFaces          160;
        startFace       76256;
    }
    right
    {
        type            patch;
        nFaces          160;
        startFace       76416;
    }
    down
    {
        type            empty;
        nFaces          38336;
        startFace       76576;
    }
    up
    {
        type            empty;
        nFaces          38336;
        startFace       114912;
    }
    top
    {
        type            patch;
        nFaces          240;
        startFace       153248;
    }
    bottom
    {
        type            patch;
        nFaces          240;
        startFace       153488;
    }
    cylinders
    {
        type            wall;
        nFaces          32;
        startFace       153728;
    }
)

// ************************************************************************* //
